.title KiCad schematic
.model __D1 D()
.save all
.probe alli
.probe p(I1)
.probe p(R2)
.probe p(D1)
.probe p(R1)
.probe p(V1)
I1 GND Net-_D1-A_ DC 1 
R2 Net-_D1-A_ GND 1Meg
D1 Net-_D1-A_ GND __D1
R1 Net-_D1-A_ /nV0 0.1
V1 /nV0 GND DC 0 SIN( 0 0.85 50 0 0 0 ) 
.include pv.sub
.end