*PV Simulation_SPICE
********************
*diode
.model Def D()
********************
*-------------------